Version 4.1
SHEET 1 880 680
WIRE 112 -112 -128 -112
WIRE 416 -112 192 -112
WIRE -128 16 -128 -112
WIRE -80 16 -128 16
WIRE -48 16 -80 16
WIRE -16 16 -48 16
WIRE 144 16 64 16
WIRE 176 16 144 16
WIRE 240 16 176 16
WIRE 384 16 320 16
WIRE 416 16 416 -112
WIRE 416 16 384 16
WIRE 144 48 144 16
WIRE 416 48 416 16
WIRE -128 80 -128 16
WIRE 144 144 144 128
WIRE 416 160 416 128
WIRE -128 176 -128 160
WIRE 416 192 416 160
WIRE -48 208 -48 16
WIRE 192 208 -48 208
WIRE 320 208 272 208
WIRE 368 208 320 208
WIRE 368 272 368 256
WIRE 416 272 368 272
WIRE 416 336 416 272
WIRE 416 384 416 336
WIRE 416 480 416 464
FLAG 416 480 0
FLAG -128 176 0
FLAG -80 16 Vn1
FLAG 144 144 0
FLAG 176 16 Vn2
FLAG 384 16 Vn3
FLAG 416 160 Vn4
FLAG 320 208 Vn5
FLAG 416 336 Vn6
SYMBOL res 128 32 R0
SYMATTR InstName R2
SYMATTR Value 2
SYMBOL res 400 32 R0
SYMATTR InstName R4
SYMATTR Value 4
SYMBOL current -128 160 R180
WINDOW 123 0 0 Left 0
WINDOW 39 0 0 Left 0
SYMATTR InstName I1
SYMATTR Value 10
SYMBOL res 208 -128 R90
WINDOW 0 0 56 VBottom 2
WINDOW 3 32 56 VTop 2
SYMATTR InstName R5
SYMATTR Value 5
SYMBOL res 336 0 R90
WINDOW 0 0 56 VBottom 2
WINDOW 3 32 56 VTop 2
SYMATTR InstName R3
SYMATTR Value 3
SYMBOL res 80 0 R90
WINDOW 0 0 56 VBottom 2
WINDOW 3 32 56 VTop 2
SYMATTR InstName R1
SYMATTR Value 1
SYMBOL g 416 176 R0
SYMATTR InstName G1
SYMATTR Value 0.01
SYMBOL res 288 192 R90
WINDOW 0 0 56 VBottom 2
WINDOW 3 32 56 VTop 2
SYMATTR InstName R6
SYMATTR Value 6
SYMBOL res 432 480 R180
WINDOW 0 36 76 Left 2
WINDOW 3 36 40 Left 2
SYMATTR InstName R7
SYMATTR Value 7
TEXT -328 -40 Left 2 !.tran 0 1 0
