Version 4.1
SHEET 1 880 680
WIRE -32 16 -80 16
WIRE 144 16 48 16
WIRE 240 16 144 16
WIRE 144 48 144 16
WIRE 240 48 240 16
WIRE -80 80 -80 16
WIRE 144 144 144 112
WIRE 192 144 144 144
WIRE 240 144 240 128
WIRE 240 144 192 144
WIRE -80 176 -80 160
WIRE 192 176 192 144
FLAG 192 176 0
FLAG -80 176 0
SYMBOL voltage -80 64 R0
WINDOW 3 -511 45 Left 2
WINDOW 123 0 0 Left 0
WINDOW 39 0 0 Left 0
SYMATTR Value PULSE(0 12 1u 1u 1u 10u 20u)
SYMATTR InstName V1
SYMBOL ind -48 32 R270
WINDOW 0 32 56 VTop 2
WINDOW 3 5 56 VBottom 2
SYMATTR InstName L1
SYMATTR Value 2µ
SYMATTR SpiceLine Rser=1m
SYMBOL cap 128 48 R0
SYMATTR InstName C1
SYMATTR Value 40µ
SYMBOL res 224 32 R0
SYMATTR InstName R1
SYMATTR Value 100
TEXT -328 -40 Left 2 !.tran 0 10m 0 1u
