* RC Low-Pass Filter - AC Test
* Cutoff freq = 1/(2*pi*1k*1u) = 159.2 Hz
V1 1 0 DC 0 AC 1
R1 1 2 1k
C1 2 0 1u
.AC DEC 50 1 100k
