V1 1 0 1.0  
R1 1 2 1000.0
C1 2 0 1e-6

.AC dec 10 1 100k
