* C:\Users\judes\Desktop\UTD Grad Courses\Spring 2026\EECT 7v88\Digital-Twins-transient_v2\LTSpice_files\Draft2.asc
* Generated by LTspice 26.0.1 for Windows.
V1 1 0 PULSE(5 12 1u 1u 1u 10u 20u)
L1 1 2 2u
C1 3 0 40u
R1 3 0 100
R2 3 2 0.1
.tran 0 10m 0 1u
.op
*.backanno
*.end
