* RC Circuit with Pulse Source

* Pulse source:
* PULSE(V1 V2 TD TR TF PW PER)
V1 1 0 PULSE(0 5 1u 1u 1u 10u 20u)

* Series resistor
R1 1 2 1k

* Capacitor to ground
C1 2 0 1n

.TRAN 0.1u 50u
.END
